LTspice 24.0.12 for Windows
Circuit: * C:\Users\smdoboet\Kranke_Ballmaschine\Humidifier.asc
Start Time: Sun Aug 11 10:41:00 2024
solver = Normal
Maximum thread count: 12
tnom = 27
temp = 27
method = modified trap
WARNING: Less than two connections to node nc_01.  This node is used by s:u1:1.
Direct Newton iteration for .op point succeeded.
Total elapsed time: 0.181 seconds.

