LTspice 24.0.12 for Windows
Circuit: * C:\Users\domin\Kranke_Ballmaschine\Humidifier.asc
Start Time: Sat Aug 10 20:21:50 2024
solver = Normal
Maximum thread count: 8
tnom = 27
temp = 27
method = modified trap
WARNING: Less than two connections to node nc_01.  This node is used by s:u1:1.
Direct Newton iteration for .op point succeeded.
Total elapsed time: 0.228 seconds.

